
[General]
network = kdet
experiment-label = 1402246.1
output-vector-file = ${resultdir}/${configname}-${runnumber}-1402246.1.vec
output-scalar-file = ${resultdir}/${configname}-${runnumber}-1402246.1.sca
repeat = 10
sim-time-limit = 5min
**.numNodes = 25
**.numProxies = 3
**.mobility.numHosts = 200
**.nodeResults = "${resultdir}/node_1402246.1.csv"
**.coreResults = "${resultdir}/core_1402246.1.csv"
num-rngs = 3
**.mobility.rng-0 = 1
**.wlan[*].mac.rng-0 = 2
#debug-on-errors = true
**.interval = 5s

tkenv-plugin-path = ../../../etc/plugins

**.channelNumber = 0

# mobility

**.hosts[0].mobility.constraintAreaMinX = -1050.71481028m
**.hosts[0].mobility.constraintAreaMaxX = -1050.71481028m
**.hosts[0].mobility.constraintAreaMinY = 523.460390823m
**.hosts[0].mobility.constraintAreaMaxY = 523.460390823m

**.hosts[1].mobility.constraintAreaMinX = 460.081910638m
**.hosts[1].mobility.constraintAreaMaxX = 460.081910638m
**.hosts[1].mobility.constraintAreaMinY = -170.114505762m
**.hosts[1].mobility.constraintAreaMaxY = -170.114505762m

**.hosts[2].mobility.constraintAreaMinX = 525.218753263m
**.hosts[2].mobility.constraintAreaMaxX = 525.218753263m
**.hosts[2].mobility.constraintAreaMinY = 734.426010718m
**.hosts[2].mobility.constraintAreaMaxY = 734.426010718m

**.hosts[3].mobility.constraintAreaMinX = 330.754305058m
**.hosts[3].mobility.constraintAreaMaxX = 330.754305058m
**.hosts[3].mobility.constraintAreaMinY = 1082.83796424m
**.hosts[3].mobility.constraintAreaMaxY = 1082.83796424m

**.hosts[4].mobility.constraintAreaMinX = -947.537848951m
**.hosts[4].mobility.constraintAreaMaxX = -947.537848951m
**.hosts[4].mobility.constraintAreaMinY = -218.34469067m
**.hosts[4].mobility.constraintAreaMaxY = -218.34469067m

**.hosts[5].mobility.constraintAreaMinX = -1508.85109327m
**.hosts[5].mobility.constraintAreaMaxX = -1508.85109327m
**.hosts[5].mobility.constraintAreaMinY = -253.104903576m
**.hosts[5].mobility.constraintAreaMaxY = -253.104903576m

**.hosts[6].mobility.constraintAreaMinX = -1426.99195155m
**.hosts[6].mobility.constraintAreaMaxX = -1426.99195155m
**.hosts[6].mobility.constraintAreaMinY = -854.950298491m
**.hosts[6].mobility.constraintAreaMaxY = -854.950298491m

**.hosts[7].mobility.constraintAreaMinX = 342.483815934m
**.hosts[7].mobility.constraintAreaMaxX = 342.483815934m
**.hosts[7].mobility.constraintAreaMinY = 189.468618823m
**.hosts[7].mobility.constraintAreaMaxY = 189.468618823m

**.hosts[8].mobility.constraintAreaMinX = 0m
**.hosts[8].mobility.constraintAreaMaxX = 0m
**.hosts[8].mobility.constraintAreaMinY = 0m
**.hosts[8].mobility.constraintAreaMaxY = 0m

**.hosts[9].mobility.constraintAreaMinX = 976.390348916m
**.hosts[9].mobility.constraintAreaMaxX = 976.390348916m
**.hosts[9].mobility.constraintAreaMinY = 2010.50727649m
**.hosts[9].mobility.constraintAreaMaxY = 2010.50727649m

**.hosts[10].mobility.constraintAreaMinX = 147.550308287m
**.hosts[10].mobility.constraintAreaMaxX = 147.550308287m
**.hosts[10].mobility.constraintAreaMinY = 2528.00128468m
**.hosts[10].mobility.constraintAreaMaxY = 2528.00128468m

**.hosts[11].mobility.constraintAreaMinX = -159.281633404m
**.hosts[11].mobility.constraintAreaMaxX = -159.281633404m
**.hosts[11].mobility.constraintAreaMinY = -1683.60708603m
**.hosts[11].mobility.constraintAreaMaxY = -1683.60708603m

**.hosts[12].mobility.constraintAreaMinX = 544.67668173m
**.hosts[12].mobility.constraintAreaMaxX = 544.67668173m
**.hosts[12].mobility.constraintAreaMinY = 2054.94293484m
**.hosts[12].mobility.constraintAreaMaxY = 2054.94293484m

**.hosts[13].mobility.constraintAreaMinX = 471.717528646m
**.hosts[13].mobility.constraintAreaMaxX = 471.717528646m
**.hosts[13].mobility.constraintAreaMinY = 1374.3004967m
**.hosts[13].mobility.constraintAreaMaxY = 1374.3004967m

**.hosts[14].mobility.constraintAreaMinX = 1570.01124783m
**.hosts[14].mobility.constraintAreaMaxX = 1570.01124783m
**.hosts[14].mobility.constraintAreaMinY = 330.978859546m
**.hosts[14].mobility.constraintAreaMaxY = 330.978859546m

**.hosts[15].mobility.constraintAreaMinX = -208.046820221m
**.hosts[15].mobility.constraintAreaMaxX = -208.046820221m
**.hosts[15].mobility.constraintAreaMinY = -445.346812158m
**.hosts[15].mobility.constraintAreaMaxY = -445.346812158m

**.hosts[16].mobility.constraintAreaMinX = 45.0093383533m
**.hosts[16].mobility.constraintAreaMaxX = 45.0093383533m
**.hosts[16].mobility.constraintAreaMinY = 1792.33936054m
**.hosts[16].mobility.constraintAreaMaxY = 1792.33936054m

**.hosts[17].mobility.constraintAreaMinX = 847.057406356m
**.hosts[17].mobility.constraintAreaMaxX = 847.057406356m
**.hosts[17].mobility.constraintAreaMinY = 1478.44604104m
**.hosts[17].mobility.constraintAreaMaxY = 1478.44604104m

**.hosts[18].mobility.constraintAreaMinX = 1259.07332195m
**.hosts[18].mobility.constraintAreaMaxX = 1259.07332195m
**.hosts[18].mobility.constraintAreaMinY = 777.94456547m
**.hosts[18].mobility.constraintAreaMaxY = 777.94456547m

**.hosts[19].mobility.constraintAreaMinX = 2026.16328481m
**.hosts[19].mobility.constraintAreaMaxX = 2026.16328481m
**.hosts[19].mobility.constraintAreaMinY = -118.661899377m
**.hosts[19].mobility.constraintAreaMaxY = -118.661899377m

**.hosts[20].mobility.constraintAreaMinX = -1547.99680588m
**.hosts[20].mobility.constraintAreaMaxX = -1547.99680588m
**.hosts[20].mobility.constraintAreaMinY = -27.3453663258m
**.hosts[20].mobility.constraintAreaMaxY = -27.3453663258m

**.hosts[21].mobility.constraintAreaMinX = -1189.24843779m
**.hosts[21].mobility.constraintAreaMaxX = -1189.24843779m
**.hosts[21].mobility.constraintAreaMinY = 65.8554397798m
**.hosts[21].mobility.constraintAreaMaxY = 65.8554397798m

**.hosts[22].mobility.constraintAreaMinX = -123.992754845m
**.hosts[22].mobility.constraintAreaMaxX = -123.992754845m
**.hosts[22].mobility.constraintAreaMinY = 136.832544003m
**.hosts[22].mobility.constraintAreaMaxY = 136.832544003m

**.hosts[23].mobility.constraintAreaMinX = 901.065873695m
**.hosts[23].mobility.constraintAreaMaxX = 901.065873695m
**.hosts[23].mobility.constraintAreaMinY = 297.134034325m
**.hosts[23].mobility.constraintAreaMaxY = 297.134034325m

**.hosts[24].mobility.constraintAreaMinX = -684.542891652m
**.hosts[24].mobility.constraintAreaMaxX = -684.542891652m
**.hosts[24].mobility.constraintAreaMinY = 288.414837868m
**.hosts[24].mobility.constraintAreaMaxY = 288.414837868m


**.proxies[0].mobility.constraintAreaMinX = -1583.75565048m
**.proxies[0].mobility.constraintAreaMaxX = -1583.75565048m
**.proxies[0].mobility.constraintAreaMinY = -1318.86271137m
**.proxies[0].mobility.constraintAreaMaxY = -1318.86271137m

**.proxies[1].mobility.constraintAreaMinX = -174.088353599m
**.proxies[1].mobility.constraintAreaMaxX = -174.088353599m
**.proxies[1].mobility.constraintAreaMinY = -977.031868658m
**.proxies[1].mobility.constraintAreaMaxY = -977.031868658m

**.proxies[2].mobility.constraintAreaMinX = -585.897616367m
**.proxies[2].mobility.constraintAreaMaxX = -585.897616367m
**.proxies[2].mobility.constraintAreaMinY = -932.469272484m
**.proxies[2].mobility.constraintAreaMaxY = -932.469272484m

**.mobility.constraintAreaMinZ = 0m
**.mobility.constraintAreaMaxZ = 0m
**.mobilityType = "StationaryMobility"

#### Malicious behavior

**.hosts[23].*.dropProbability = 0.1
**.hosts[23].trafGen.numPackets = 0
**.hosts[23].faulty= true

**.hosts[9].*.dropProbability = 0.1
**.hosts[9].trafGen.numPackets = 0
**.hosts[9].faulty= true

**.dropProbability = 0.0
**.k = 1

#### Traffic Generator
**.trafGenType = "WCNTrafGen"

**.hosts[*].trafGen.startTime = 20s
**.hosts[*].trafGen.protocol = 258

**.hosts[0].trafGen.destAddresses = "proxies[1]"
**.hosts[0].trafGen.filename = "traffic/trafGen-37.115.118.102.5"

**.hosts[1].trafGen.destAddresses = "proxies[2]"
**.hosts[1].trafGen.filename = "traffic/trafGen-37.115.106.93.5"

**.hosts[2].trafGen.destAddresses = "proxies[2]"
**.hosts[2].trafGen.filename = "traffic/trafGen-37.115.57.188.5"

**.hosts[3].trafGen.destAddresses = "proxies[1]"
**.hosts[3].trafGen.filename = "traffic/trafGen-163.134.61.244.5"

**.hosts[4].trafGen.destAddresses = "proxies[1]"
**.hosts[4].trafGen.filename = "traffic/trafGen-37.115.106.25.5"

**.hosts[5].trafGen.destAddresses = "proxies[0]"
**.hosts[5].trafGen.filename = "traffic/trafGen-37.115.33.174.5"

**.hosts[6].trafGen.destAddresses = "proxies[1]"
**.hosts[6].trafGen.filename = "traffic/trafGen-37.115.57.125.5"

**.hosts[7].trafGen.destAddresses = "proxies[1]"
**.hosts[7].trafGen.filename = "traffic/trafGen-37.115.57.173.5"

**.hosts[8].trafGen.destAddresses = "proxies[0]"
**.hosts[8].trafGen.filename = "traffic/trafGen-37.27.224.53.5"

**.hosts[10].trafGen.destAddresses = "proxies[1]"
**.hosts[10].trafGen.filename = "traffic/trafGen-37.115.33.222.5"

**.hosts[11].trafGen.destAddresses = "proxies[1]"
**.hosts[11].trafGen.filename = "traffic/trafGen-37.115.33.189.5"

**.hosts[12].trafGen.destAddresses = "proxies[0]"
**.hosts[12].trafGen.filename = "traffic/trafGen-37.115.57.97.5"

**.hosts[13].trafGen.destAddresses = "proxies[0]"
**.hosts[13].trafGen.filename = "traffic/trafGen-37.115.33.92.5"

**.hosts[14].trafGen.destAddresses = "proxies[0]"
**.hosts[14].trafGen.filename = "traffic/trafGen-37.148.232.5.5"

**.hosts[15].trafGen.destAddresses = "proxies[1]"
**.hosts[15].trafGen.filename = "traffic/trafGen-37.115.106.11.5"

**.hosts[16].trafGen.destAddresses = "proxies[1]"
**.hosts[16].trafGen.filename = "traffic/trafGen-37.115.57.30.5"

**.hosts[17].trafGen.destAddresses = "proxies[0]"
**.hosts[17].trafGen.filename = "traffic/trafGen-37.114.220.96.5"

**.hosts[18].trafGen.destAddresses = "proxies[1]"
**.hosts[18].trafGen.filename = "traffic/trafGen-37.115.47.90.5"

**.hosts[19].trafGen.destAddresses = "proxies[1]"
**.hosts[19].trafGen.filename = "traffic/trafGen-37.115.106.95.5"

**.hosts[20].trafGen.destAddresses = "proxies[0]"
**.hosts[20].trafGen.filename = "traffic/trafGen-37.114.202.27.5"

**.hosts[21].trafGen.destAddresses = "proxies[0]"
**.hosts[21].trafGen.filename = "traffic/trafGen-163.134.208.142.5"

**.hosts[22].trafGen.destAddresses = "proxies[2]"
**.hosts[22].trafGen.filename = "traffic/trafGen-163.134.103.147.5"

**.hosts[24].trafGen.destAddresses = "proxies[2]"
**.hosts[24].trafGen.filename = "traffic/trafGen-163.134.192.124.5"

**.proxies[*].trafGen.protocol = 258

### Vector recording
**.ta.*.vector-recording = true
**.flooding.*.vector-recording = true
**.vector-recording = false
# Routing
**.routingProtocol = "OLSR"
**.Tc_redundancy = 2    
**.waitTime = 20s  
**.maxDistance = 750m
